
#######################################################################
#
#                 Cambridge Crystallographic Data Centre
#                                CCDC 
#
#######################################################################
#
# If this CIF has been generated from an entry in the Cambridge 
# Structural Database, then it will include bibliographic, chemical, 
# crystal, experimental, refinement or atomic coordinate data resulting 
# from the CCDC's data processing and validation procedures.
#
#######################################################################

data_glycine_alpha
_symmetry_cell_setting           triclinic
_symmetry_space_group_name_H-M   'P 1'
_symmetry_Int_Tables_number      1
loop_
_symmetry_equiv_pos_site_id
_symmetry_equiv_pos_as_xyz
1 x,y,z
_cell_length_a 5.0890941765346005                    
_cell_length_b 11.854143001002258                   
_cell_length_c 5.4549356017816182                   
_cell_angle_alpha 90.000068171664154                
_cell_angle_beta 111.45225608978782                 
_cell_angle_gamma 89.999991728471358                
loop_
_atom_site_label
_atom_site_fract_x
_atom_site_fract_y
_atom_site_fract_z
C        0.438149253   0.125430947   0.434465393
C        0.440225005   0.146055279   0.711669839
H        0.416306631   0.236714323   0.737416764
H        0.641316227   0.119323009   0.859678268
N        0.207632438   0.085996964   0.758881779
H        0.218864775   0.000193920   0.725491223
H        0.008264118   0.113936652   0.631572135
H        0.218451084   0.096124294   0.956403956
O        0.669879877   0.138218267   0.399816780
O        0.205795425   0.098476829   0.257253290
C        0.061850837   0.625431020   1.065535552
C        0.059778470   0.646055669   0.788331956
H        0.083696132   0.736714213   0.762585343
H       -0.141314137   0.619323195   0.640322346
N        0.292369583   0.585997219   0.741118773
H        0.281136571   0.500193734   0.774509194
H        0.491737986   0.613936686   0.868428742
H        0.281550835   0.596124414   0.543597125
O       -0.169876524   0.638217943   1.100183684
O        0.294206786   0.598476560   1.242747486
C        0.561850747   0.874569053   0.565534607
C        0.559774995   0.853944721   0.288330161
H        0.583693369   0.763285677   0.262583236
H        0.358683773   0.880676991   0.140321732
N        0.792367562   0.914003036   0.241118221
H        0.781135225   0.999806080   0.274508777
H        0.991735882   0.886063348   0.368427865
H        0.781548916   0.903875706   0.043596044
O        0.330120123   0.861781733   0.600183220
O        0.794204575   0.901523171   0.742746710
C        0.938149163   0.374568980  -0.065535552
C        0.940221530   0.353944331   0.211668044
H        0.916303868   0.263285787   0.237414657
H        1.141314137   0.380676805   0.359677654
N        0.707630417   0.414002781   0.258881227
H        0.718863429   0.499806266   0.225490806
H        0.508262014   0.386063314   0.131571258
H        0.718449165   0.403875586   0.456402875
O        1.169876524   0.361782057  -0.100183684
O        0.705793214   0.401523440  -0.242747486

